Version 4
SHEET 1 880 868
WIRE -1744 -288 -1744 -368
WIRE -2400 -208 -2400 -304
WIRE -2272 -208 -2272 -304
WIRE -2144 -208 -2144 -304
WIRE -1744 -112 -1744 -208
WIRE -1616 -112 -1744 -112
WIRE -1744 -80 -1744 -112
WIRE -1440 -80 -1440 -320
WIRE -2400 -64 -2400 -128
WIRE -2272 -64 -2272 -128
WIRE -2144 -64 -2144 -128
WIRE -1616 0 -1616 -112
WIRE -1616 0 -1696 0
WIRE -1488 0 -1616 0
WIRE -1744 144 -1744 16
WIRE -1440 144 -1440 16
WIRE -2400 320 -2400 224
WIRE -2272 320 -2272 224
WIRE -2400 464 -2400 400
WIRE -2272 464 -2272 400
FLAG -2144 -64 0
FLAG -2144 -304 Vref
FLAG -2272 -64 0
FLAG -2400 -64 0
FLAG -2400 -304 VCC
FLAG -2272 -304 VSS
FLAG -2272 464 0
FLAG -2400 464 0
FLAG -2400 224 Non-Inverting
IOPIN -2400 224 In
FLAG -2272 224 Inverting
IOPIN -2272 224 In
FLAG -1744 144 0
FLAG -1440 144 0
FLAG -1744 -368 0
FLAG -1440 -320 Vref
SYMBOL voltage -2144 -224 R0
SYMATTR InstName V1
SYMATTR Value 5
SYMBOL voltage -2400 -224 R0
SYMATTR InstName V2
SYMATTR Value 15
SYMBOL voltage -2272 -224 R0
WINDOW 123 0 0 Left 0
WINDOW 39 0 0 Left 0
SYMATTR InstName V3
SYMATTR Value -15
SYMBOL voltage -2272 304 R0
SYMATTR InstName V4
SYMATTR Value 0
SYMBOL voltage -2400 304 R0
WINDOW 123 0 0 Left 0
WINDOW 39 0 0 Left 0
SYMATTR InstName V5
SYMATTR Value SINE(0 1 1kHz)
SYMBOL current -1744 -288 R0
SYMATTR InstName I1
SYMATTR Value 20mA
SYMBOL Contrib\\Nexperia\\nmos\\BUK7K18-40E -1696 -80 M0
SYMATTR InstName U1
SYMBOL Contrib\\Nexperia\\nmos\\BUK7K18-40Ew2 -1488 -80 R0
SYMATTR InstName U2
TEXT -2272 536 Left 2 !.model NP NPN(BF=125 Cje=.5p Cjc=.5p Rb=500)\n.model PN LPNP(BF=25 Cje=.3p Cjc=1.5p Rb=250)
TEXT -2472 568 Left 2 !.tran 10ms
TEXT -2272 600 Left 2 !.lib BUK7K18-40Ew2.lib
